9
Etanol
C    -0.7480    0.0000    0.0000
C     0.7480    0.0000    0.0000
O     1.3630    1.2070    0.0000
H    -1.1220   -0.5420    0.8730
H    -1.1220   -0.5420   -0.8730
H    -1.1220    1.0420    0.0000
H     1.1220   -0.5420    0.8730
H     1.1220   -0.5420   -0.8730
H     2.2450    1.2070    0.0000
