22
Poliamida-6 (d√≠mero simplificado)
C     0.000     0.000     0.000
C     1.540     0.000     0.000
C     2.090     1.400     0.000
C     3.630     1.400     0.000
C     4.180     0.000     0.000
C     5.720     0.000     0.000
O     6.300     1.200     0.000
N     7.200    -0.800     0.000
C     8.600    -0.800     0.000
C     9.200     0.600     0.000
C    10.740     0.600     0.000
C    11.340    -0.800     0.000
C    12.880    -0.800     0.000
O    13.460     0.400     0.000
N    14.360    -1.600     0.000
H    -0.540    -0.900     0.000
H    -0.540     0.900     0.000
H     1.080    -0.900     0.000
H     1.080     0.900     0.000
H     4.740    -0.900     0.000
H     5.180     0.900     0.000
H    14.960    -1.000     0.000
